OPT_V9/My_campus_w_initial_sub_3_active_25_03_11_44/powerflow_results_t9.txt
Pandapower Network Debug Info
==================================================

BUS:
       vm_pu  va_degree      p_mw    q_mvar
0   1.007095   0.259462 -0.003678 -0.001402
1   1.011447   0.452759 -0.004583 -0.000440
2   1.013705   0.587954 -0.002873  0.000434
3   1.009180   0.351980 -0.003152  0.000000
4   1.003688   0.152268 -0.001960 -0.000003
5   1.006204   0.246271 -0.003077 -0.000046
6   1.010508   0.403271 -0.004661 -0.000434
7   1.002229   0.074106 -0.002993 -0.000439
8   1.001310   0.046470 -0.005102 -0.000874
9   0.999980   0.000380  0.002983  0.004338
10  0.999976   0.000297  0.005955  0.001535
11  0.999973   0.000265  0.004113  0.002091
12  0.999980   0.000871  0.004237  0.000595
13  0.999971   0.000788  0.007015  0.001093
14  0.999964   0.000788  0.007777  0.006072
15  0.999995   0.000478  0.000000  0.000000
16  0.999995   0.000478  0.000000  0.000000
17  0.999982   0.000925  0.000000  0.000000
18  0.999982   0.000924  0.000000  0.000000
19  1.000000   0.000000  0.001075 -0.011666
20  1.000000   0.000001  0.000000  0.000000
21  1.000000   0.000000 -0.001340 -0.011030
22  1.000000   0.000001  0.000000  0.000000
--------------------------------------------------

LINE:
    p_from_mw   q_from_mvar   p_to_mw  q_to_mvar         pl_mw       ql_mvar  i_from_ka   i_to_ka      i_ka  vm_from_pu  va_from_degree  vm_to_pu  va_to_degree  loading_percent
0   -0.001085  7.666261e-03  0.001085  -0.007666  5.863850e-08  4.572141e-08   0.000298  0.000298  0.000298    1.000000        0.000001  0.999995      0.000478         0.129572
1    0.001330  7.029933e-03 -0.001330  -0.007030  1.376934e-07  1.073618e-07   0.000275  0.000275  0.000275    1.000000        0.000001  0.999982      0.000925         0.119732
2    0.013051  7.963876e-03 -0.013051  -0.007964  1.807604e-07  1.409419e-07   0.000588  0.000588  0.000588    0.999995        0.000478  0.999980      0.000380         0.255860
3    0.004237  5.953806e-04 -0.004237  -0.000595  6.331078e-09  4.936446e-09   0.000165  0.000165  0.000165    0.999982        0.000925  0.999980      0.000871         0.071603
4    0.014792  7.164731e-03 -0.014792  -0.007165  1.477136e-07  1.151748e-07   0.000633  0.000633  0.000633    0.999982        0.000925  0.999971      0.000788         0.275055
5   -0.014146 -1.297602e-03  0.014241   0.001371  9.438982e-05  7.359729e-05   0.020504  0.020504  0.020504    0.999995        0.000478  1.007095      0.259462         8.914990
6   -0.007673 -4.295298e-04  0.007719   0.000465  4.582667e-05  3.573181e-05   0.011093  0.011093  0.011093    0.999982        0.000924  1.006204      0.246271         4.823152
7   -0.002987 -4.342705e-04  0.002993   0.000439  6.155399e-06  4.799466e-06   0.004357  0.004357  0.004357    0.999982        0.000924  1.002229      0.074106         1.894229
8   -0.007048 -8.663997e-04  0.007057   0.000873  8.671096e-06  6.760996e-06   0.010250  0.010250  0.010250    0.999982        0.000924  1.001310      0.046470         4.456596
9   -0.010067 -3.625609e-03  0.010067   0.003626  3.959813e-08  3.087531e-08   0.000412  0.000412  0.000412    0.999976        0.000297  0.999980      0.000380         0.179073
10  -0.004113 -2.090602e-03  0.004113   0.002091  1.041023e-08  8.117025e-09   0.000178  0.000178  0.000178    0.999973        0.000265  0.999976      0.000297         0.077209
11  -0.007777 -6.071746e-03  0.007777   0.006072  4.761481e-08  3.712605e-08   0.000380  0.000380  0.000380    0.999964        0.000788  0.999971      0.000788         0.165123
12   0.007449 -5.290464e-07 -0.007417   0.000026  3.208848e-05  2.501992e-05   0.010630  0.010630  0.010630    1.011447        0.452759  1.007095      0.259462         4.621712
13   0.003152  1.339115e-09 -0.003146   0.000005  6.514853e-06  5.079738e-06   0.004509  0.004509  0.004509    1.009180        0.351980  1.007095      0.259462         1.960280
14   0.002873 -4.342708e-04 -0.002866   0.000440  7.432549e-06  5.795281e-06   0.004137  0.004137  0.004137    1.013705        0.587954  1.011447      0.452759         1.798844
15  -0.001955  5.358427e-07  0.001960   0.000003  4.640110e-06  3.617970e-06   0.002819  0.002819  0.002819    1.001310        0.046470  1.003688      0.152268         1.225503
16   0.004661  4.342752e-04 -0.004643  -0.000420  1.868563e-05  1.456949e-05   0.006687  0.006687  0.006687    1.010508        0.403271  1.006204      0.246271         2.907305
--------------------------------------------------

TRAFO:
    p_hv_mw  q_hv_mvar   p_lv_mw  q_lv_mvar    pl_mw  ql_mvar   i_hv_ka   i_lv_ka  vm_hv_pu  va_hv_degree  vm_lv_pu  va_lv_degree  loading_percent
0 -0.014136  -0.000298  0.014146   0.001298  0.00001    0.001  0.000544  0.020504  0.999995      0.000478  0.999995      0.000478         0.142059
1 -0.017699  -0.000730  0.017709   0.001730  0.00001    0.001  0.000682  0.025683  0.999982      0.000925  0.999982      0.000924         0.177934
2 -0.001075   0.011666  0.001085  -0.007666  0.00001    0.004  0.000097  0.000298  1.000000      0.000000  1.000000      0.000001         0.029289
3  0.001340   0.011030 -0.001330  -0.007030  0.00001    0.004  0.000092  0.000275  1.000000      0.000000  1.000000      0.000001         0.027778
--------------------------------------------------
